Circuit: * D:\altium\SeniorDesign\Hardware\LTSpice\Draft1.asc

Direct Newton iteration for .op point succeeded.

Date: Wed Nov 13 19:03:23 2019
Total elapsed time: 0.203 seconds.

tnom = 27
temp = 27
method = modified trap
totiter = 2105
traniter = 2082
tranpoints = 1042
accept = 1042
rejected = 0
matrix size = 6
fillins = 0
solver = Normal
Matrix Compiler1: 298 bytes object code size  0.3/0.2/[0.1]
Matrix Compiler2: 462 bytes object code size  0.1/0.2/[0.1]

