Circuit: * C:\Users\ryanz\Documents\4th Year Documents\LTC7801.asc

Direct Newton iteration for .op point succeeded.
Ignoring empty pin current: Ix(u1:9)
Ignoring empty pin current: Ix(u1:12)
Ignoring empty pin current: Ix(u1:15)
Ignoring empty pin current: Ix(u1:16)
Ignoring empty pin current: Ix(u1:23)
Ignoring empty pin current: Ix(u1:25)
Ignoring empty pin current: Ix(u1:27)
Ignoring empty pin current: Ix(u1:29)
Ignoring empty pin current: Ix(u1:31)
Ignoring empty pin current: Ix(u1:33)
Ignoring empty pin current: Ix(u1:35)
Ignoring empty pin current: Ix(u1:9)
Ignoring empty pin current: Ix(u1:12)
Ignoring empty pin current: Ix(u1:15)
Ignoring empty pin current: Ix(u1:16)
Ignoring empty pin current: Ix(u1:23)
Ignoring empty pin current: Ix(u1:25)
Ignoring empty pin current: Ix(u1:27)
Ignoring empty pin current: Ix(u1:29)
Ignoring empty pin current: Ix(u1:31)
Ignoring empty pin current: Ix(u1:33)
Ignoring empty pin current: Ix(u1:35)
Heightened Def Con from 9.41273e-006 to 9.41673e-006
Heightened Def Con from 1.39632e-005 to 1.39632e-005

Date: Tue Oct 08 11:56:28 2019
Total elapsed time: 31.188 seconds.

tnom = 27
temp = 27
method = modified trap
totiter = 607582
traniter = 607563
tranpoints = 154716
accept = 111678
rejected = 43040
matrix size = 157
fillins = 28
solver = Normal
Thread vector: 39.3/16.9[4] 17.5/8.1[4] 4.3/5.4[1] 0.9/6.4[1]  2592/500
Matrix Compiler1: 6.50 KB object code size  3.9/2.4/[1.2]
Matrix Compiler2: 10.26 KB object code size  2.5/4.5/[1.2]

