Circuit: * C:\Users\ryanz\Senior Design\Hardware\LTSpice\LTC7801.asc

Direct Newton iteration for .op point succeeded.
Ignoring empty pin current: Ix(u1:9)
Ignoring empty pin current: Ix(u1:12)
Ignoring empty pin current: Ix(u1:15)
Ignoring empty pin current: Ix(u1:16)
Ignoring empty pin current: Ix(u1:23)
Ignoring empty pin current: Ix(u1:25)
Ignoring empty pin current: Ix(u1:27)
Ignoring empty pin current: Ix(u1:29)
Ignoring empty pin current: Ix(u1:31)
Ignoring empty pin current: Ix(u1:33)
Ignoring empty pin current: Ix(u1:35)
Ignoring empty pin current: Ix(u1:9)
Ignoring empty pin current: Ix(u1:12)
Ignoring empty pin current: Ix(u1:15)
Ignoring empty pin current: Ix(u1:16)
Ignoring empty pin current: Ix(u1:23)
Ignoring empty pin current: Ix(u1:25)
Ignoring empty pin current: Ix(u1:27)
Ignoring empty pin current: Ix(u1:29)
Ignoring empty pin current: Ix(u1:31)
Ignoring empty pin current: Ix(u1:33)
Ignoring empty pin current: Ix(u1:35)

Date: Thu Dec 05 09:34:59 2019
Total elapsed time: 30.179 seconds.

tnom = 27
temp = 27
method = modified trap
totiter = 441792
traniter = 441764
tranpoints = 120659
accept = 86588
rejected = 34071
matrix size = 150
fillins = 43
solver = Normal
Thread vector: 35.5/44.5[2] 37.7/23.4[2] 4.0/11.0[1] 1.0/99.6[1]  2592/500
Matrix Compiler1: 6.99 KB object code size  6.1/5.1/[1.1]
Matrix Compiler2: 9.80 KB object code size  4.8/12.8/[2.3]

