Circuit: * C:\Users\ryanz\Senior Design\Hardware\LTSpice\LTC7801.asc

Direct Newton iteration for .op point succeeded.
Ignoring empty pin current: Ix(u1:9)
Ignoring empty pin current: Ix(u1:12)
Ignoring empty pin current: Ix(u1:15)
Ignoring empty pin current: Ix(u1:16)
Ignoring empty pin current: Ix(u1:23)
Ignoring empty pin current: Ix(u1:25)
Ignoring empty pin current: Ix(u1:27)
Ignoring empty pin current: Ix(u1:29)
Ignoring empty pin current: Ix(u1:31)
Ignoring empty pin current: Ix(u1:33)
Ignoring empty pin current: Ix(u1:35)
Ignoring empty pin current: Ix(u1:9)
Ignoring empty pin current: Ix(u1:12)
Ignoring empty pin current: Ix(u1:15)
Ignoring empty pin current: Ix(u1:16)
Ignoring empty pin current: Ix(u1:23)
Ignoring empty pin current: Ix(u1:25)
Ignoring empty pin current: Ix(u1:27)
Ignoring empty pin current: Ix(u1:29)
Ignoring empty pin current: Ix(u1:31)
Ignoring empty pin current: Ix(u1:33)
Ignoring empty pin current: Ix(u1:35)
Heightened Def Con from 3.6559e-005 to 3.6561e-005

Date: Wed Nov 06 11:46:48 2019
Total elapsed time: 87.027 seconds.

tnom = 27
temp = 27
method = modified trap
totiter = 1056618
traniter = 1056611
tranpoints = 288875
accept = 206058
rejected = 82818
matrix size = 151
fillins = 23
solver = Normal
Thread vector: 38.4/23.7[4] 21.0/13.3[4] 5.0/45.8[1] 0.9/8.8[1]  2592/500
Matrix Compiler1: 5.82 KB object code size  4.2/3.0/[1.0]
Matrix Compiler2: 9.53 KB object code size  3.3/4.8/[1.5]

