Circuit: * D:\altium\SeniorDesign\Hardware\LTSpice\LTC7801.asc

Direct Newton iteration for .op point succeeded.
Ignoring empty pin current: Ix(u1:9)
Ignoring empty pin current: Ix(u1:12)
Ignoring empty pin current: Ix(u1:15)
Ignoring empty pin current: Ix(u1:16)
Ignoring empty pin current: Ix(u1:23)
Ignoring empty pin current: Ix(u1:25)
Ignoring empty pin current: Ix(u1:27)
Ignoring empty pin current: Ix(u1:29)
Ignoring empty pin current: Ix(u1:31)
Ignoring empty pin current: Ix(u1:33)
Ignoring empty pin current: Ix(u1:35)
Ignoring empty pin current: Ix(u1:9)
Ignoring empty pin current: Ix(u1:12)
Ignoring empty pin current: Ix(u1:15)
Ignoring empty pin current: Ix(u1:16)
Ignoring empty pin current: Ix(u1:23)
Ignoring empty pin current: Ix(u1:25)
Ignoring empty pin current: Ix(u1:27)
Ignoring empty pin current: Ix(u1:29)
Ignoring empty pin current: Ix(u1:31)
Ignoring empty pin current: Ix(u1:33)
Ignoring empty pin current: Ix(u1:35)
Heightened Def Con from 3.65572e-005 to 3.65572e-005

Date: Mon Nov 11 18:21:24 2019
Total elapsed time: 22.838 seconds.

tnom = 27
temp = 27
method = modified trap
totiter = 1055056
traniter = 1055049
tranpoints = 288302
accept = 205813
rejected = 82490
matrix size = 151
fillins = 23
solver = Normal
Thread vector: 44.4/21.4[4] 11.9/8.8[2] 4.0/11.6[1] 0.4/3.5[1]  2592/500
Matrix Compiler1: 5.82 KB object code size  2.9/2.2/[0.9]
Matrix Compiler2: 9.53 KB object code size  1.9/2.6/[0.5]

