Circuit: * C:\Users\ryanz\Senior Design\Hardware\LTSpice\LTC7801.asc

Direct Newton iteration for .op point succeeded.
Ignoring empty pin current: Ix(u1:9)
Ignoring empty pin current: Ix(u1:12)
Ignoring empty pin current: Ix(u1:15)
Ignoring empty pin current: Ix(u1:16)
Ignoring empty pin current: Ix(u1:23)
Ignoring empty pin current: Ix(u1:25)
Ignoring empty pin current: Ix(u1:27)
Ignoring empty pin current: Ix(u1:29)
Ignoring empty pin current: Ix(u1:31)
Ignoring empty pin current: Ix(u1:33)
Ignoring empty pin current: Ix(u1:35)
Ignoring empty pin current: Ix(u1:9)
Ignoring empty pin current: Ix(u1:12)
Ignoring empty pin current: Ix(u1:15)
Ignoring empty pin current: Ix(u1:16)
Ignoring empty pin current: Ix(u1:23)
Ignoring empty pin current: Ix(u1:25)
Ignoring empty pin current: Ix(u1:27)
Ignoring empty pin current: Ix(u1:29)
Ignoring empty pin current: Ix(u1:31)
Ignoring empty pin current: Ix(u1:33)
Ignoring empty pin current: Ix(u1:35)
Heightened Def Con from 3.65565e-005 to 3.65565e-005

Date: Mon Nov 11 16:05:39 2019
Total elapsed time: 86.415 seconds.

tnom = 27
temp = 27
method = modified trap
totiter = 1060899
traniter = 1060892
tranpoints = 290394
accept = 207336
rejected = 83059
matrix size = 151
fillins = 23
solver = Normal
Thread vector: 38.5/17.8[4] 18.6/15.0[4] 3.7/5.5[1] 0.8/13.7[1]  2592/500
Matrix Compiler1: 5.82 KB object code size  4.2/2.3/[1.5]
Matrix Compiler2: 9.53 KB object code size  2.7/3.7/[1.6]

